Slack Bus analysis 2 modified/Slack Bus analysis 2 modified/30 BUS system/ieee30 Three slack BUS.txt
                                PTI INTERACTIVE POWER SYSTEM SIMULATOR--PSS(R)E Xplore SUN, FEB 28 2016  22:56
                         08/20/93 UW ARCHIVE           100.0  1961 W IEEE 30 BUS TES     %MVA FOR TRANSFORMERS
                                                                                         %MVA FOR NON-TRANSFORMER BRANCHES

X------- FROM BUS ------X AREA  VOLT            GEN    LOAD    SHUNT  X---------- TO BUS ----------X                        TRANSFORMER     RATING
  BUS# X-- NAME --X BASKV ZONE  PU/KV  ANGLE  MW/MVAR MW/MVAR MW/MVAR   BUS# X-- NAME --X BASKV AREA CKT    MW     MVAR    RATIO   ANGLE   %  SET A

     1 GLEN LYN    132.00    1 1.0600    0.0   147.4      0.0     0.0 -----------------------------------------------------------------------------
                             1 139.92           -1.1L     0.0     0.0      2 CLAYTOR     132.00    1  1    102.1    -6.6                   79   130
                                                                           3 KUMIS       132.00    1  1     45.3     5.5                   35   130
     2 CLAYTOR     132.00    1 1.0450   -3.1    40.0     21.7     0.0 -----------------------------------------------------------------------------
                             1 137.94           32.8R    12.7     0.0      1 GLEN LYN    132.00    1  1   -100.3     6.1                   77   130
                                                                           4 HANCOCK     132.00    1  1     18.4     5.3                   29    65
                                                                           5 FIELDALE    132.00    1  1     69.0     4.0                   53   130
                                                                           6 ROANOKE     132.00    1  1     31.2     4.7                   48    65
     3 KUMIS       132.00    1 1.0307   -3.7     0.0      2.4     0.0 -----------------------------------------------------------------------------
                             1 136.06            0.0      1.2     0.0      1 GLEN LYN    132.00    1  1    -44.5    -6.8                   35   130
                                                                           4 HANCOCK     132.00    1  1     42.1     5.6                   33   130
     4 HANCOCK     132.00    1 1.0232   -4.6     0.0      7.6     0.0 -----------------------------------------------------------------------------
                             1 135.06            0.0      1.6     0.0      2 CLAYTOR     132.00    1  1    -18.2    -8.6                   31    65
                                                                           3 KUMIS       132.00    1  1    -41.8    -5.9                   33   130
                                                                           6 ROANOKE     132.00    1  1     54.9    -1.6                   61    90
                                                                          12 HANCOCK     33.000    1  1     -2.5    14.5  0.932LK          23    65
     5 FIELDALE    132.00    1 1.0100  -10.4     0.0     94.2     0.0 -----------------------------------------------------------------------------
                             1 133.32           32.5R    19.0     0.0      2 CLAYTOR     132.00    1  1    -66.9     0.3                   51   130
                                                                           7 BLAINE      132.00    1  1    -27.3    13.3                   43    70
     6 ROANOKE     132.00    1 1.0175   -5.8     0.0      0.0     0.0 -----------------------------------------------------------------------------
                             1 134.31            0.0      0.0     0.0      2 CLAYTOR     132.00    1  1    -30.6    -7.0                   48    65
                                                                           4 HANCOCK     132.00    1  1    -54.6     1.9                   61    90
                                                                           7 BLAINE      132.00    1  1     51.2    -3.0                   39   130
                                                                           8 REUSENS     132.00    1  1     28.3     9.8                   94    32
                                                                           9 ROANOKE     1.0000    1  1    -10.8    -6.3  0.978LK          19    65
                                                                          10 ROANOKE     33.000    1  1      2.6     0.5  0.969LK           8    32
                                                                          28 CLOVERDL    132.00    1  1     13.9     4.1
     7 BLAINE      132.00    1 1.0067   -8.2     0.0     22.8     0.0 -----------------------------------------------------------------------------
                             1 132.88            0.0     10.9     0.0      5 FIELDALE    132.00    1  1     27.7   -14.3                   45    70
                                                                           6 ROANOKE     132.00    1  1    -50.5     3.4                   39   130
     8 REUSENS     132.00    1 1.0100   -6.4     0.0     30.0     0.0 -----------------------------------------------------------------------------
                             1 133.32           16.8R    30.0     0.0      6 ROANOKE     132.00    1  1    -28.2   -10.4                   94    32
                                                                          28 CLOVERDL    132.00    1  1     -1.8    -2.8
     9 ROANOKE     1.0000    1 1.0533   -4.7     0.0      0.0     0.0 -----------------------------------------------------------------------------
                             1 1.0533            0.0      0.0     0.0      6 ROANOKE     132.00    1  1     10.8     6.6  1.000UN          19    65
                                                                          10 ROANOKE     33.000    1  1     33.7     6.1
                                                                          11 ROANOKE     11.000    1  1    -44.5   -12.7                   71    65
    10 ROANOKE     33.000    1 1.0475   -6.6     0.0      5.8     0.0 -----------------------------------------------------------------------------
                             1 34.568            0.0      2.0   -20.8      6 ROANOKE     132.00    1  1     -2.6    -0.5  1.000UN           8    32
                                                                           9 ROANOKE     1.0000    1  1    -33.7    -4.9
                                                                          17 BUS 17      33.000    1  1     -0.5     5.7
                                                                          20 BUS 20      33.000    1  1      6.1     4.6                   24    32
                                                                          21 BUS 21      33.000    1  1     16.7     9.6
                                                                          22 BUS 22      33.000    1  1      8.2     4.3
    11 ROANOKE     11.000    1 1.0820    0.0    44.5      0.0     0.0 -----------------------------------------------------------------------------
                             1 11.902           16.7R     0.0     0.0      9 ROANOKE     1.0000    1  1     44.5    16.7                   73    65

    12 HANCOCK     33.000    1 1.0641   -4.3     0.0     11.2     0.0 -----------------------------------------------------------------------------
                             1 35.114            0.0      7.5     0.0      4 HANCOCK     132.00    1  1      2.5   -14.0  1.000UN          22    65
                                                                          13 HANCOCK     11.000    1  1    -60.4    -3.0                   93    65
                                                                          14 BUS 14      33.000    1  1      9.4     1.8
                                                                          15 BUS 15      33.000    1  1     24.1     5.4                   77    32
                                                                          16 BUS 16      33.000    1  1     13.3     2.4                   84    16                                PTI INTERACTIVE POWER SYSTEM SIMULATOR--PSS(R)E Xplore SUN, FEB 28 2016  22:56
                         08/20/93 UW ARCHIVE           100.0  1961 W IEEE 30 BUS TES     %MVA FOR TRANSFORMERS
                                                                                         %MVA FOR NON-TRANSFORMER BRANCHES

X------- FROM BUS ------X AREA  VOLT            GEN    LOAD    SHUNT  X---------- TO BUS ----------X                        TRANSFORMER     RATING
  BUS# X-- NAME --X BASKV ZONE  PU/KV  ANGLE  MW/MVAR MW/MVAR MW/MVAR   BUS# X-- NAME --X BASKV AREA CKT    MW     MVAR    RATIO   ANGLE   %  SET A

    13 HANCOCK     11.000    1 1.0710    0.0    60.4      0.0     0.0 -----------------------------------------------------------------------------
                             1 11.781            7.5R     0.0     0.0     12 HANCOCK     33.000    1  1     60.4     7.5                   94    65

    14 BUS 14      33.000    1 1.0492   -5.4     0.0      6.2     0.0 -----------------------------------------------------------------------------
                             1 34.622            0.0      1.6     0.0     12 HANCOCK     33.000    1  1     -9.3    -1.6
                                                                          15 BUS 15      33.000    1  1      3.1    -0.0                   19    16
    15 BUS 15      33.000    1 1.0428   -5.7     0.0      8.2     0.0 -----------------------------------------------------------------------------
                             1 34.411            0.0      2.5     0.0     12 HANCOCK     33.000    1  1    -23.8    -4.7                   76    32
                                                                          14 BUS 14      33.000    1  1     -3.0     0.0                   19    16
                                                                          18 BUS 18      33.000    1  1      8.9     0.7                   56    16
                                                                          23 BUS 23      33.000    1  1      9.7     1.4
    16 BUS 16      33.000    1 1.0481   -5.5     0.0      3.5     0.0 -----------------------------------------------------------------------------
                             1 34.589            0.0      1.8     0.0     12 HANCOCK     33.000    1  1    -13.1    -2.0                   83    16
                                                                          17 BUS 17      33.000    1  1      9.6     0.2                   60    16
    17 BUS 17      33.000    1 1.0431   -6.5     0.0      9.0     0.0 -----------------------------------------------------------------------------
                             1 34.421            0.0      5.8     0.0     10 ROANOKE     33.000    1  1      0.6    -5.7
                                                                          16 BUS 16      33.000    1  1     -9.6    -0.1                   60    16
    18 BUS 18      33.000    1 1.0322   -6.7     0.0      3.2     0.0 -----------------------------------------------------------------------------
                             1 34.062            0.0      0.9     0.0     15 BUS 15      33.000    1  1     -8.9    -0.6                   55    16
                                                                          19 BUS 19      33.000    1  1      5.7    -0.3                   35    16
    19 BUS 19      33.000    1 1.0291   -7.1     0.0      9.5     0.0 -----------------------------------------------------------------------------
                             1 33.961            0.0      3.4     0.0     18 BUS 18      33.000    1  1     -5.6     0.4                   35    16
                                                                          20 BUS 20      33.000    1  1     -3.9    -3.8                   34    16
    20 BUS 20      33.000    1 1.0329   -7.0     0.0      2.2     0.0 -----------------------------------------------------------------------------
                             1 34.086            0.0      0.7     0.0     10 ROANOKE     33.000    1  1     -6.1    -4.5                   24    32
                                                                          19 BUS 19      33.000    1  1      3.9     3.8                   34    16
    21 BUS 21      33.000    1 1.0352   -7.1     0.0     17.5     0.0 -----------------------------------------------------------------------------
                             1 34.160            0.0     11.2     0.0     10 ROANOKE     33.000    1  1    -16.6    -9.3
                                                                          22 BUS 22      33.000    1  1     -0.9    -1.9
    22 BUS 22      33.000    1 1.0357   -7.1     0.0      0.0     0.0 -----------------------------------------------------------------------------
                             1 34.178            0.0      0.0     0.0     10 ROANOKE     33.000    1  1     -8.1    -4.2
                                                                          21 BUS 21      33.000    1  1      0.9     1.9
                                                                          24 BUS 24      33.000    1  1      7.2     2.3
    23 BUS 23      33.000    1 1.0308   -6.7     0.0      3.2     0.0 -----------------------------------------------------------------------------
                             1 34.018            0.0      1.6     0.0     15 BUS 15      33.000    1  1     -9.6    -1.3
                                                                          24 BUS 24      33.000    1  1      6.4    -0.3
    24 BUS 24      33.000    1 1.0237   -7.6     0.0      8.7     0.0 -----------------------------------------------------------------------------
                             1 33.782            0.0      6.7    -4.5     22 BUS 22      33.000    1  1     -7.1    -2.2
                                                                          23 BUS 23      33.000    1  1     -6.3     0.4
                                                                          25 BUS 25      33.000    1  1      4.8    -0.4
    25 BUS 25      33.000    1 1.0163   -8.5     0.0      0.0     0.0 -----------------------------------------------------------------------------
                             1 33.538            0.0      0.0     0.0     24 BUS 24      33.000    1  1     -4.7     0.5
                                                                          26 BUS 26      33.000    1  1      3.5     2.4
                                                                          27 CLOVERDL    33.000    1  1      1.2    -2.8
    26 BUS 26      33.000    1 0.9986   -8.9     0.0      3.5     0.0 -----------------------------------------------------------------------------
                             1 32.954            0.0      2.3     0.0     25 BUS 25      33.000    1  1     -3.5    -2.3

    27 CLOVERDL    33.000    1 1.0209   -8.8     0.0      0.0     0.0 -----------------------------------------------------------------------------
                             1 33.688            0.0      0.0     0.0     25 BUS 25      33.000    1  1     -1.2     2.8
                                                                          28 CLOVERDL    132.00    1  1    -12.1    -6.2  1.000UN
                                                                          29 BUS 29      33.000    1  1      6.2     1.7
                                                                          30 BUS 30      33.000    1  1      7.1     1.7                                PTI INTERACTIVE POWER SYSTEM SIMULATOR--PSS(R)E Xplore SUN, FEB 28 2016  22:56
                         08/20/93 UW ARCHIVE           100.0  1961 W IEEE 30 BUS TES     %MVA FOR TRANSFORMERS
                                                                                         %MVA FOR NON-TRANSFORMER BRANCHES

X------- FROM BUS ------X AREA  VOLT            GEN    LOAD    SHUNT  X---------- TO BUS ----------X                        TRANSFORMER     RATING
  BUS# X-- NAME --X BASKV ZONE  PU/KV  ANGLE  MW/MVAR MW/MVAR MW/MVAR   BUS# X-- NAME --X BASKV AREA CKT    MW     MVAR    RATIO   ANGLE   %  SET A

    28 CLOVERDL    132.00    1 1.0124   -6.2     0.0      0.0     0.0 -----------------------------------------------------------------------------
                             1 133.64            0.0      0.0     0.0      6 ROANOKE     132.00    1  1    -13.9    -5.3
                                                                           8 REUSENS     132.00    1  1      1.8    -1.5
                                                                          27 CLOVERDL    33.000    1  1     12.1     6.9  0.968LK
    29 BUS 29      33.000    1 1.0010  -10.1     0.0      2.4     0.0 -----------------------------------------------------------------------------
                             1 33.032            0.0      0.9     0.0     27 CLOVERDL    33.000    1  1     -6.1    -1.5
                                                                          30 BUS 30      33.000    1  1      3.7     0.6
    30 BUS 30      33.000    1 0.9895  -10.9     0.0     10.6     0.0 -----------------------------------------------------------------------------
                             1 32.652            0.0      1.9     0.0     27 CLOVERDL    33.000    1  1     -6.9    -1.4
                                                                          29 BUS 29      33.000    1  1     -3.7    -0.5
